<?xml version="1.0" encoding="UTF-8"?>

<!-- generated on 2025-02-08 01:32:08 by Eclipse SUMO duarouter Version 1.21.0
<duarouterConfiguration xmlns:xsi="http://www.w3.org/2001/XMLSchema-instance" xsi:noNamespaceSchemaLocation="http://sumo.dlr.de/xsd/duarouterConfiguration.xsd">

    <input>
        <net-file value="Nicosia.net.xml"/>
        <route-files value="Nicosia.rou.xml"/>
    </input>

    <output>
        <output-file value="Nicosia.rou.xml"/>
    </output>

</duarouterConfiguration>
-->

<routes xmlns:xsi="http://www.w3.org/2001/XMLSchema-instance" xsi:noNamespaceSchemaLocation="http://sumo.dlr.de/xsd/routes_file.xsd">
    <vType id="veh_passenger" vClass="passenger"/>
    <vehicle id="veh0" type="veh_passenger" depart="0.00" departLane="best" departSpeed="max">
        <route edges="-8043518 -6147180#2 -1175017322 530774376#0 538071048#0 538070410#0 531203501 7949015 -5928324#6 -5928324#5"/>
    </vehicle>
    <vehicle id="veh1" type="veh_passenger" depart="1.80" departLane="best">
        <route edges="531203502 206309662#1 8103886#0 182249449#8 177678665#0 177678656#1 177678656#2 177678656#3 177678656#5 177678656#8 -29463328#2 -29463328#1 -29463328#0 29462346#0 -21547696#1 -21547696#0 -1012713869 24381495#0 24381495#1"/>
    </vehicle>
    <vehicle id="veh2" type="veh_passenger" depart="3.60" departLane="best">
        <route edges="637092513#2 637092513#5 637092513#6 -6147180#2 -1175017322 -538070409#2 974793016 974793016.24 190595499#0 190595499#1 187970389#1 536942256#0 536942256#1 536942256#3 536942256#4 536942256#5 536942256#7 177678608#0 177678608#2 177678612#0 177678612#1 177678612#3 177678612#4 177678612#5 177678612#6 -1262213713.4 -177678714#1"/>
    </vehicle>
    <vehicle id="veh3" type="veh_passenger" depart="5.40" departLane="best">
        <route edges="177678595#1 177678648 536948375#5 177678659#0 177678659#3 177678659#5 177678659#6 177678659#7 177678659#8 1266555543#0 -540223401 -1057181535 -1057181532 -177678582#1 -177678582#0"/>
    </vehicle>
    <vehicle id="veh4" type="veh_passenger" depart="7.20" departLane="best">
        <route edges="-177678577#3 -177678744#3 -177678744#2 177678745#0 177678745#1 208177024#2 208177024#3 208177024#4 208177024#5 208177024#6 208177024#7 187970389#1 536942256#0"/>
    </vehicle>
    <vehicle id="veh5" type="veh_passenger" depart="9.00" departLane="best">
        <route edges="227624658#1 -177678608#5 -177678608#3 -177678608#1 -536942256#7 1134717598 8103884 5928324#3 5928324#4 5928324#5 5928324#6 5928324#8 5928324#9 5928324#12 537183450#0 537183450#1 537183450#4 -181648342#4 181648340"/>
    </vehicle>
    <vehicle id="veh6" type="veh_passenger" depart="10.80" departLane="best">
        <route edges="-536948375#3 -536948375#0 -177678590 -182249449#1 -536942256#7 -536942256#5 177678722#0 177678722#2 -177678746#3 -177678746#2 -177678746#1 208177024#6 208177024#7 187970389#1"/>
    </vehicle>
    <vehicle id="veh7" type="veh_passenger" depart="12.60" departLane="best">
        <route edges="538070533#1 538070533#4 1056379972#0 5043613 984608220#0 984608220#1 1046855620 203160744#0 203160744#1 203160744#2 29462347#0 1312197005 29463328#0 29463328#1 29463328#2 29463328#4 29463328#5 29463328#6 537162620 536992223#0 205547556 1266555543#0 -540223401 -1057181535 -1057181532"/>
    </vehicle>
    <vehicle id="veh8" type="veh_passenger" depart="14.40" departLane="best">
        <route edges="538070533#0 538070533#1 205623152#0 1142108810#0 8089493#5 8089493#7 8089493#8 8089493#9 1056379971#0 29463327#0"/>
    </vehicle>
    <vehicle id="veh9" type="veh_passenger" depart="16.20" departLane="best" departSpeed="max">
        <route edges="1056572037 1056572039 628399331 -8099432#2 -8099432#1 -8099432#0 -208177024#3 -208177024#2 -208177024#1"/>
    </vehicle>
    <vehicle id="veh10" type="veh_passenger" depart="18.00" departLane="best">
        <route edges="-832162240#6 -832162240#1 -832162240#0 -1012713870#2 -1012713870#0 -1012713869 24381495#0 24381495#1 984608224#0 984608224#1 627729470 984608221#0 1046406886 1056379971#0 29463323#0 29463323#1 29463323#2 1046834125#0 1046834125#0.20 1046834129 1046834129.25 1253229245"/>
    </vehicle>
    <vehicle id="veh11" type="veh_passenger" depart="19.80" departLane="best">
        <route edges="-177678717#4 -177678717#1 177678722#2 -177678746#3 -177678746#2 -177678746#1 -208177024#5 -208177024#4 -208177024#3 -208177024#2 -208177024#1 -177678577#4 -177678577#3 -177678744#3 -177678744#2"/>
    </vehicle>
    <vehicle id="veh12" type="veh_passenger" depart="21.60" departLane="best">
        <route edges="5928329#0 206309662#4 206309662#6 206309662#8 206309662#10 206309661#0 181648343#0 181648343#1 181648345#1 203160744#1"/>
    </vehicle>
    <vehicle id="veh13" type="veh_passenger" depart="23.40" departLane="best">
        <route edges="538070533#0 538070533#1 538070533#4 1046834125#0 1046834125#0.20 1046834129 1046834129.25 5240318#0"/>
    </vehicle>
    <vehicle id="veh15" type="veh_passenger" depart="27.00" departLane="best">
        <route edges="1266555539#2 177678715 -177678751#0 177678759#2 -177678659#5 -177678659#3 -177678659#2 -536948375#5 -536948375#4 -536948375#3 -536948375#0 -177678590 -182249449#1 -536942256#7 1134717598 8103884 5928324#3 5928324#4 5928324#5 7948793#0 7948793#1 7948793#4 -24277607#3 -24277607#0 538071048#0 538070410#0 538070410#1 538070410#2 181648341#0"/>
    </vehicle>
    <vehicle id="veh16" type="veh_passenger" depart="28.80" departLane="best" departSpeed="max">
        <route edges="539703207 984608221#0 1046406886 -8089493#9 -8089493#8"/>
    </vehicle>
    <vehicle id="veh18" type="veh_passenger" depart="32.40" departLane="best">
        <route edges="4247995 613227883 613227883.27 613227879#0 613227879#2 613227879#10 535307165 203209261#0 177678755 227624657#0 227624657#1 177678581#0 177678581#2 -177678744#2 -177678593#5"/>
    </vehicle>
    <vehicle id="veh19" type="veh_passenger" depart="34.20" departLane="best">
        <route edges="-537162620 -536992222 -29463328#5 -29463328#4 -177678656#8 -177678656#6 187974607#0 -182249449#18 181647514 206309662#10 205623192#0 205623192#1 8089493#9 984608220#0 984608220#1 1046855620"/>
    </vehicle>
    <vehicle id="veh22" type="veh_passenger" depart="39.60" departLane="best">
        <route edges="21547196#1 -177678656#8 -177678656#6 -177678656#4 -177678656#2 -177678656#1 -177678656#0 -182249449#5 -182249449#3 -182249449#2 -182249449#1 -536942256#7 -536942256#5 -536942256#4 -536942256#3 -536942256#2 -536942256#0 -187970389#1 -208177024#8 -208177024#6 -208177024#5 -208177024#4 -208177024#3 -208177024#2 -177678745#1 -177678745#0 177678744#2 177678744#3 177678577#3"/>
    </vehicle>
    <vehicle id="veh23" type="veh_passenger" depart="41.40" departLane="best">
        <route edges="1266036764 664990516#0 539027599 539027600#0 613227883 613227883.27 613227879#0 613227879#2 613227879#10 535307165 203209261#0 177678755 227624657#0 227624657#1 227624657#2 177678593#3 177678593#5 177678745#0 177678745#1 208177024#2 208177024#3 8099432#0 8099432#1 8099432#2 628840212 1056572041 1266555535#0 1266555535#1 1266555536#0 1266555536#1 1262213713 -628399335 -536948375#7 -536948375#6 177678659#0 177678659#3 -177678738#2 177678767#0 177678752#0 177678752#1 -536992222"/>
    </vehicle>
    <vehicle id="veh24" type="veh_passenger" depart="43.20" departLane="best">
        <route edges="227624657#2 -177678593#2 -177678621 -177678609 535307170#2 538078650 538078649#0 974793012 4247996#0 530774376#0 538071048#0 538070410#0 538070410#1 538070410#2 538070410#4 538070410#6 538070410#8 537183450#0 537183450#1 537183450#4 538070533#0 538070533#1 205623152#0"/>
    </vehicle>
    <vehicle id="veh25" type="veh_passenger" depart="45.00" departLane="best">
        <route edges="-208177024#0 819611164#2 819611164#3 -177678640 5095071#2 5095071#3 -8099432#2 227624658#0 227624658#1 -177678608#5 -177678608#3 -177678608#1 -536942256#7 1134717598 8103884 5928324#3 5928324#4 5928324#5 5928324#6 5928324#8 5928324#9 5928324#12 537183450#0 537183450#1 537183450#4 538070533#0 538070533#1 538070533#4 1046834125#0 1046834125#0.20 5240284"/>
    </vehicle>
    <vehicle id="veh26" type="veh_passenger" depart="46.80" departLane="best">
        <route edges="-205623152#2 538070533#4 1056379972#0 5043613 984608220#0 984608220#1 1046855620 203160744#0 203160744#1 203160744#2 29462347#0 1312197005 29463328#0 29463328#1 29463328#2 -177678656#8 -177678656#6 -177678656#4 531198247 177678584#9"/>
    </vehicle>
    <vehicle id="veh27" type="veh_passenger" depart="48.60" departLane="best" departSpeed="max">
        <route edges="984451738#0 1051578923 1051578923.7 1266555545 -536992223#2 6280422#0 6280422#1 6280422#2 6280422#3 -832162240#1 21547196#0"/>
    </vehicle>
    <vehicle id="veh28" type="veh_passenger" depart="50.40" departLane="best">
        <route edges="182249449#3 182249449#5 182249449#7 182249449#8 182249449#9 182249449#10 182249449#13 182249449#15 181647514 206309662#10 206309661#0 181648343#0 181648343#1 181648345#1 203160744#1 203160744#2 29462347#0"/>
    </vehicle>
    <vehicle id="veh29" type="veh_passenger" depart="52.20" departLane="best">
        <route edges="5928324#4 -8103882#4 -8103882#2 -8103882#0 1305540145#0 -7949127#1 -7949127#0 -182249449#3 -182249449#2 177678590 536948375#0"/>
    </vehicle>
    <vehicle id="veh30" type="veh_passenger" depart="54.00" departLane="best">
        <route edges="1012713872 24381495#1 984608224#0 984608224#1 627729470 984608221#0 1046406886 -8089493#9 -8089493#8 205623161 206309662#10 206309661#0 181648343#0 181648343#1 181648345#1 203160744#1 203160744#2 984608225 29462331 1012713871 1012713869 1012713870#0 1012713870#1 832162240#0 832162240#1 832162240#3"/>
    </vehicle>
    <vehicle id="veh31" type="veh_passenger" depart="55.80" departLane="best" departSpeed="max">
        <route edges="-535307171#0 535307172 974793002#0 974793002#1 535307170#0 535307170#2 538078650 538078649#0 190595499#0 190595499#1 187970389#1 536942256#0 536942256#1 536942256#3 5928324#0 5928324#1 5928324#2 5928324#3 5928324#4 5928324#5 5928324#6 5928348#0 -531203500#4 -531203500#2 -531203500#1 -531203500#0 8089493#0 8089493#2 8089493#3 8089493#4 8089493#5 8089493#7 8089493#8"/>
    </vehicle>
    <vehicle id="veh32" type="veh_passenger" depart="57.60" departLane="best" departSpeed="max">
        <route edges="227625210 -1266555536#1 -1266555536#0 -1266555535#1 -1266555535#0 -1056572041 628399331 -8099432#2 -8099432#1 -8099432#0 -177678625#3 -177678625#2 -177678625#1 536929208#1 177678606#0"/>
    </vehicle>
    <vehicle id="veh33" type="veh_passenger" depart="59.40" departLane="best" departSpeed="max">
        <route edges="8046084#2 538070410#6 538070410#8 -5928324#13 -5928324#11 -5928324#8 -5928324#6 -5928324#5 -5928324#4 -5928324#3 -5928324#2 -5928324#1 -5928324#0 -536942256#3 -536942256#2 -536942256#0 -187970389#1 -208177024#8 177678698 -177678676 177678606#0 177678606#1 177678696"/>
    </vehicle>
    <vehicle id="veh34" type="veh_passenger" depart="61.20" departLane="best" departSpeed="max">
        <route edges="184168374#1 637092513#5 637092513#6 -6147180#2 -1175017322 -538070409#2 974793016 974793016.24 190595499#0 190595499#1 -208177024#8 -208177024#6 -208177024#5 -208177024#4 -208177024#3 -5095067#3 177678772 5095071#1 177678640 -819611164#4"/>
    </vehicle>
    <vehicle id="veh36" type="veh_passenger" depart="64.80" departLane="best">
        <route edges="177678580#1 177678580#2 -177678612#3 -177678612#2 -177678612#0 -177678608#3 -177678608#1 -536942256#7 1134717598 8103884 5928324#3 5928324#4 5928324#5 7948793#0 7948793#1 7948793#4 -24277607#3 -24277607#0 538071048#0 538070410#0 538070410#1 538070410#2 538070410#4 538070410#6 538070410#8 -5928324#13 -5928324#11"/>
    </vehicle>
    <vehicle id="veh37" type="veh_passenger" depart="66.60" departLane="best">
        <route edges="984608224#1 627729470 984608221#0 1046406886 -8089493#9 -8089493#8 -8089493#7 -8089493#6 -8089493#4 -8089493#3 -8089493#2 -8089493#0 531203500#0 531203500#1 531203500#2 531203500#3 -5928348#1 -5928324#6 -5928324#5 -5928324#4 -5928324#3 -5928324#2 -5928324#1 -5928324#0 536942256#4 177678722#0 177678717#0 177678641 177678760#1 177678760#2"/>
    </vehicle>
    <vehicle id="veh38" type="veh_passenger" depart="68.40" departLane="best">
        <route edges="-177678716 -177678659#3 -177678659#2 536948375#6 536948375#7 536948375#7.41 628399335 -1262213713.4 -1266555536#1 -1266555536#0 -1266555535#1 -1266555535#0 -1056572041 628399331 -8099432#2 -8099432#1 -8099432#0 -177678625#3 -177678625#2 -177678696 177678606#2 -177678594"/>
    </vehicle>
    <vehicle id="veh39" type="veh_passenger" depart="70.20" departLane="best" departSpeed="max">
        <route edges="-177678741 -8103882#0 1305540145#0 206309662#0 206309662#1 206309662#2 206309662#4 206309662#6 206309662#8 206309662#10"/>
    </vehicle>
    <vehicle id="veh40" type="veh_passenger" depart="72.00" departLane="best">
        <route edges="-177678634 1233246967#1 177678669#1 -536942256#2 -536942256#0 -187970389#1 -208177024#8 -208177024#6 -208177024#5 -208177024#4 8099432#0 8099432#1 227624658#0 177678586"/>
    </vehicle>
    <vehicle id="veh41" type="veh_passenger" depart="73.80" departLane="best">
        <route edges="984608224#0 984608224#1 627729470 984608221#0 1046406886 -8089493#9 -8089493#8 -8089493#7 -8089493#6 -8089493#4 205623158#0 -206309662#3 8103886#0 -182249449#7 -182249449#5 -182249449#3 -182249449#2 177678590 536948375#0 -177678600#5 -177678600#3 177678580#0 177678580#1 177678580#2 177678612#4 177678589#0 177678589#1 -1266555535#1 -1266555535#0 -1056572041 -1056572043 178013943#0"/>
    </vehicle>
    <vehicle id="veh42" type="veh_passenger" depart="75.60" departLane="best" departSpeed="max">
        <route edges="974795367 203160744#0 203160744#1 203160744#2 29462347#0 -1312197006 -182249449#21 -182249449#18 -182249449#15 -182249449#13 -182249449#11 5928329#0"/>
    </vehicle>
    <vehicle id="veh43" type="veh_passenger" depart="77.40" departLane="best" departSpeed="max">
        <route edges="-1176161228 -1175017322 -538070409#2 974793016 974793016.24 190595499#0 190595499#1 -208177024#8 -208177024#6 -208177024#5 -208177024#4 -208177024#3 -5095067#3 177678772 5095071#1 5095071#2"/>
    </vehicle>
    <vehicle id="veh44" type="veh_passenger" depart="79.20" departLane="best" departSpeed="max">
        <route edges="28511296#5 23178224 1012713869 1012713870#0 21548020 29463328#1 29463328#2 -177678656#8 -177678656#6 187974607#0 -182249449#18 181647514"/>
    </vehicle>
    <vehicle id="veh45" type="veh_passenger" depart="81.00" departLane="best" departSpeed="max">
        <route edges="-8043504#0 637092513#5 637092513#6 -6147180#2 -1175017322 530774376#0 538071048#0 538070410#0 531203501 7949015 5928348#0 5928348#2 5928348#3 1305540145#0 -7949127#1 -7949127#0 182249449#5 177678656#0 177678656#1 177678656#2 177678656#3 177678656#5 177678656#8 29463328#4"/>
    </vehicle>
    <vehicle id="veh46" type="veh_passenger" depart="82.80" departLane="best">
        <route edges="-177678744#3 -177678744#2 177678745#0 177678745#1 208177024#2 208177024#3 208177024#4 208177024#5 208177024#6 208177024#7 187970389#1 536942256#0 28511112 554539908 177678669#0 177678669#1"/>
    </vehicle>
    <vehicle id="veh47" type="veh_passenger" depart="84.60" departLane="best">
        <route edges="6280422#0 177678582#0 177678582#1 1057181532 1057181535 540223401 -1051578924 -1266555541 -1266555539#4 -1266555539#2 -1266555539#1 -536933871#2 628399335 -1262213713.4 -1266555536#1 -1266555536#0 -1266555535#1 -1266555535#0 -1056572041 -1056572043 -819611164#5"/>
    </vehicle>
    <vehicle id="veh48" type="veh_passenger" depart="86.40" departLane="best">
        <route edges="177678746#0 177678746#2 177678746#3 -177678722#2 177678717#0 177678717#3 177678608#2 177678612#0 177678612#1 177678612#3 177678612#4 177678612#5 177678612#6 -628399335 536933871#2 1266555539#0 1266555539#2 1266555539#3 1266555541 627018897 1051578921#0 -28407132#4"/>
    </vehicle>
    <vehicle id="veh49" type="veh_passenger" depart="88.20" departLane="best" departSpeed="max">
        <route edges="8046084#2 538070410#6 538070410#8 -5928324#13 -5928324#11 -5928324#8 -5928324#6 -5928324#5 -5928324#4 -5928324#3 -5928324#2 -5928324#1 -5928324#0 -536942256#3 -536942256#2 -536942256#0 -187970389#1 187974594#0 4247995 613227883"/>
    </vehicle>
    <vehicle id="veh50" type="veh_passenger" depart="90.00" departLane="best">
        <route edges="-8103882#2 -8103882#0 1305540145#0 -7949127#1 -7949127#0 182249449#5 177678656#0 177678656#1 177678656#2 177678656#3 177678656#5 177678656#8 -29463328#2 21548767#0 832162240#0 21547196#0"/>
    </vehicle>
    <vehicle id="veh51" type="veh_passenger" depart="91.80" departLane="best">
        <route edges="205623178#4 -24277607#0 538071048#0 538070410#0 538070410#1 538070410#2 538070410#4 538070410#6 538070410#8 537183450#0 537183450#1 537183450#4 538070533#0 538070533#1 205623152#0 1142108810#0 8089493#5 8089493#7 205623161 -206309662#8 -206309662#6"/>
    </vehicle>
    <vehicle id="veh52" type="veh_passenger" depart="93.60" departLane="best">
        <route edges="536948375#5 177678659#0 -177678710#4 -177678710#2 -177678710#0 177678584#4 177678584#5 531198242 177678656#1 177678718#0 -182249449#11 5928329#0 206309662#4 206309662#6 181647516"/>
    </vehicle>
    <vehicle id="veh53" type="veh_passenger" depart="95.40" departLane="best">
        <route edges="537183450#4 205623186#0 8089493#3 205623158#0 -206309662#3 8103886#0 -182249449#7 -182249449#5 -182249449#3 -182249449#2 177678590 536948375#0 -177678600#5 -177678600#3 177678580#0 177678580#1 177678580#2 177678612#4 177678589#0 177678589#1 -1266555535#1 -1266555535#0 -1056572041 -1056572043 178013943#0"/>
    </vehicle>
    <vehicle id="veh54" type="veh_passenger" depart="97.20" departLane="best">
        <route edges="-1012713869 24381495#0 24381495#1 984608224#0 984608224#1 627729470 984608221#0 1046406886 -8089493#9 -8089493#8 -8089493#7 -8089493#6 -8089493#4 -8089493#3 -8089493#2 -8089493#0 531203500#0 531203500#1 531203500#2 531203500#3 -5928348#1 -5928324#6 -5928324#5 -5928324#4 -5928324#3 -5928324#2 -5928324#1 -5928324#0 -536942256#3 -536942256#2 -536942256#0 -187970389#1 187974594#0 974793012 4247996#0 1175017322 1176161228"/>
    </vehicle>
    <vehicle id="veh55" type="veh_passenger" depart="99.00" departLane="best">
        <route edges="-1266555539#1 -536933871#2 628399335 -177678612#6 -177678612#5 -177678612#4 -177678612#3 -177678612#2 -177678612#0 -177678608#3 -177678608#1 -536942256#7 -536942256#5 -536942256#4 -536942256#3 -536942256#2 -536942256#0 -187970389#1 187974594#0 974793012 4247996#0 1175017322 1266036764 8043518"/>
    </vehicle>
    <vehicle id="veh56" type="veh_passenger" depart="100.80" departLane="best">
        <route edges="628399331 -8099432#2 -8099432#1 -8099432#0 -177678625#3 -177678625#2 -177678625#1 -177678609 535307170#2 -60961302 538078651#0 539027594"/>
    </vehicle>
    <vehicle id="veh57" type="veh_passenger" depart="102.60" departLane="best">
        <route edges="-832162240#0 -1012713870#2 21548020 29463328#1 29463328#2 29463328#4 29463328#5 -177678584#11 -177678584#10 -177678584#9 -177678584#8 -177678584#7 -177678584#5 -177678584#4 -177678584#3 -177678584#1 536948375#4 -177678648 177678595#2 -177678765 177678580#2 -177678612#3 -177678612#2"/>
    </vehicle>
    <vehicle id="veh58" type="veh_passenger" depart="104.40" departLane="best">
        <route edges="6280422#3 -832162240#1 21547196#0 21547196#1 -177678656#8 -177678656#6 -177678656#4 -177678656#2 -177678656#1 -177678656#0 -182249449#5 -182249449#3 -182249449#2 -182249449#1 -536942256#7 -536942256#5 177678722#0 177678722#2 -177678746#3 229797138 177678760#3 177678747#2 8099432#1"/>
    </vehicle>
    <vehicle id="veh59" type="veh_passenger" depart="106.20" departLane="best">
        <route edges="-177678696 177678606#2 177678606#3 208177024#5 208177024#6 208177024#7 187970389#1 536942256#0 536942256#1 536942256#3 5928324#0 5928324#1 5928324#2 5928324#3 5928324#4 -8103882#4 -8103882#2 177678741"/>
    </vehicle>
    <vehicle id="veh60" type="veh_passenger" depart="108.00" departLane="best">
        <route edges="-177678656#0 -182249449#5 -182249449#3 -182249449#2 -182249449#1 -536942256#7 -536942256#5 -536942256#4 -536942256#3 -536942256#2 -536942256#0 -187970389#1 -208177024#8 177678698 -177678676 -536929208#1 177678621 227624656 -177678755 -203209261#0 535307170#0"/>
    </vehicle>
    <vehicle id="veh61" type="veh_passenger" depart="109.80" departLane="best">
        <route edges="536948375#7.41 628399335 -177678612#6 -177678595#3 -177678595#2 177678648 -536948375#4 -536948375#3 -536948375#0 -177678590 182249449#2 182249449#3 7949127#0 7949127#1 8089483#1 8089493#0 537161471#0 537161471#3 537183450#4 -181648342#4"/>
    </vehicle>
    <vehicle id="veh62" type="veh_passenger" depart="111.60" departLane="best" departSpeed="max">
        <route edges="177678678.27 -7975699#1 -7975699#0 -832162239#2 -832162240#6 -832162240#1 21547196#0 21547196#1 -177678656#8 -177678656#6 -177678656#4 -177678656#2 -177678656#1 -177678656#0 -182249449#5 7949127#0 7949127#1 8089483#1 531203500#0 531203500#1 531203500#2 531203500#3 -5928348#1 -5928324#6 7948793#0 7948793#1 7948793#4 -24277607#3 -24277607#0 538071048#0 538070410#0 538070410#1 538070410#2 181648341#0"/>
    </vehicle>
    <vehicle id="veh63" type="veh_passenger" depart="113.40" departLane="best">
        <route edges="-7975699#7 -7975699#6 -177678668 -177678583#0 -177678582#0 -6280422#0 -537162620 -177678752#1 -177678752#0 1228989647#0 1228989647#1 -177678584#9 -177678584#8 -177678584#7 -177678584#5 181647515#0 181647515#2 -182249449#2 -182249449#1 -536942256#7 -536942256#5 -536942256#4 -536942256#3 -536942256#2 -536942256#0 -187970389#1 187974594#0 4247995 613227883 613227883.27"/>
    </vehicle>
    <vehicle id="veh64" type="veh_passenger" depart="115.20" departLane="best">
        <route edges="177678595#3 177678612#6 -628399335 -536948375#7 -536948375#6 177678659#0 177678659#3 -177678738#2 177678767#0 177678752#0 177678752#1 537162620 6280422#0 177678582#0 177678582#1 1057181532 -537010639"/>
    </vehicle>
    <vehicle id="veh65" type="veh_passenger" depart="117.00" departLane="best">
        <route edges="181647521#0 205623192#0 205623192#1 8089493#9 1056379971#0 29463323#0 29463323#1 29463323#2 1046834125#0 1046834125#0.20 1046834129 1046834129.25 5240318#0"/>
    </vehicle>
    <vehicle id="veh68" type="veh_passenger" depart="122.40" departLane="best">
        <route edges="-177678754 5095067#1 5095067#2 5095067#3 208177024#3 208177024#4 208177024#5 208177024#6 208177024#7 187970389#1 536942256#0 536942256#1 536942256#3 5928324#0 5928324#1 5928324#2 5928324#3 5928324#4 5928324#5 5928324#6 5928348#0"/>
    </vehicle>
    <vehicle id="veh69" type="veh_passenger" depart="124.20" departLane="best" departSpeed="max">
        <route edges="1056572037 528509974 1266555535#0 1266555535#1 1266555536#0 1266555536#1 1262213713 -628399335 -536948375#7 -536948375#6 -536948375#5 -536948375#4 177678584#0 177678584#3 177678584#4 177678584#5 177678584#7 177678584#8 177678584#9 177678584#10 177678584#11 -29463328#5 -29463328#4 -29463328#2 -29463328#1 -29463328#0 29462346#0 29462346#1 984608224#0 984608224#1 627729470 984608221#0 184168411#0"/>
    </vehicle>
    <vehicle id="veh70" type="veh_passenger" depart="126.00" departLane="best">
        <route edges="-538078651#5 60961302 538078650 538078649#0 974793012 4247996#0 530774376#0 538071048#0 538070410#0 538070410#1 538070410#2 538070410#4 538070410#6 538070410#8 -5928324#13"/>
    </vehicle>
    <vehicle id="veh71" type="veh_passenger" depart="127.80" departLane="best">
        <route edges="-177678656#4 -177678656#2 531198241 -177678584#7 -177678584#5 -177678584#4 -177678584#3 -177678584#1 536948375#4 536948375#5 536948375#6 536948375#7 536948375#7.41 628399335 -1262213713.4 -1266555536#1 -1266555536#0 -1266555535#1 -1266555535#0 -1056572041 -1056572043 -819611164#5 -819611164#4 -819611164#2 208177024#0"/>
    </vehicle>
    <vehicle id="veh72" type="veh_passenger" depart="129.60" departLane="best">
        <route edges="-537162620 -536992222 -29463328#5 -29463328#4 -29463328#2 21548767#0 832162240#0 832162240#1 832162240#3 832162239#0 832162239#3 763489403#0 763489405#0 763489405#2"/>
    </vehicle>
    <vehicle id="veh73" type="veh_passenger" depart="131.40" departLane="best">
        <route edges="60961302 538078650 538078649#0 190595499#0 190595499#1 187970389#1 536942256#0 536942256#1 536942256#3 536942256#4 536942256#5 536942256#7 536942256#8 182249449#2 182249449#3 182249449#5 182249449#7 182249449#8 182249449#9 182249449#10 182249449#13 182249449#15 182249449#17 182249449#21 177678688#0 -177678656#6 -177678656#4 -177678656#2 -177678656#1"/>
    </vehicle>
    <vehicle id="veh74" type="veh_passenger" depart="133.20" departLane="best">
        <route edges="-5928324#1 -8103898 -1134717598 536942256#7 177678608#0 177678608#2 177678612#0 177678612#1 177678612#3 177678612#4 177678589#0 177678589#1 1266555536#0 227625207"/>
    </vehicle>
    <vehicle id="veh75" type="veh_passenger" depart="135.00" departLane="best">
        <route edges="-536933871#2 -536948375#7 -536948375#6 -536948375#5 -536948375#4 -536948375#3 -536948375#0 -177678590 -182249449#1"/>
    </vehicle>
    <vehicle id="veh76" type="veh_passenger" depart="136.80" departLane="best">
        <route edges="8099432#0 -177678747#2 -177678747#1 177678746#2 177678746#3 -177678722#2 -177678722#1 536942256#5 536942256#7 536942256#8 182249449#2"/>
    </vehicle>
    <vehicle id="veh77" type="veh_passenger" depart="138.60" departLane="best" departSpeed="max">
        <route edges="177678678.27 -7975699#1 -7975699#0 -832162239#2 -832162240#6 -832162240#1 21547196#0 21547196#1 -177678656#8 -177678656#6 187974607#0 -182249449#18 181647514 -206309662#8 537013029"/>
    </vehicle>
    <vehicle id="veh78" type="veh_passenger" depart="140.40" departLane="best">
        <route edges="538070533#1 205623152#0 1142108810#0 -8089493#4 205623158#0 -206309662#3 8103886#0 -182249449#7 -182249449#5 -182249449#3 -182249449#2 177678590 536948375#0 -177678600#5 -177678600#3 177678580#0 177678580#1 177678580#2 177678612#4 177678589#0 177678589#1 -1266555535#1 -227624337 -1266555549 -5095071#3 -5095071#2 -5095071#1"/>
    </vehicle>
    <vehicle id="veh79" type="veh_passenger" depart="142.20" departLane="best">
        <route edges="531198244 -177678656#6 -177678656#4 -177678656#2 -177678656#1 -177678656#0 -182249449#5 7949127#0 7949127#1 8089483#1 531203500#0 531203500#1 531203500#2 531203500#3 -5928348#1 -5928324#6 7948793#0 7948793#1 7948793#4 24277607#4"/>
    </vehicle>
    <vehicle id="veh80" type="veh_passenger" depart="144.00" departLane="best" departSpeed="max">
        <route edges="984451738#0 -1051578924 -1266555541 -1266555539#4 -1266555539#2 -1266555539#1 -536933871#2 628399335 -1262213713.4 -1266555536#1 -1266555536#0 -1266555535#1 -227624337 -1266555549 -5095071#3 5095067#0 5095067#1 5095067#2 5095067#3 -208177024#2 -177678745#1 -177678745#0"/>
    </vehicle>
    <vehicle id="veh81" type="veh_passenger" depart="145.80" departLane="best">
        <route edges="177678582#0 177678582#1 1057181532 -537010639 1266555545 -536992223#2 -537162620 -536992222 -29463328#5 -29463328#4 -29463328#2 -29463328#1 -29463328#0 29462346#0 29462346#1 984608224#0 984608224#1 627729470 984608221#0 1046406886 1056379971#0 29463323#0 29463323#1 29463323#2 1046834125#0 1046834125#0.20 1046834129 1046834129.25 1253229245"/>
    </vehicle>
    <vehicle id="veh83" type="veh_passenger" depart="149.40" departLane="best">
        <route edges="-29463328#1 -29463328#0 29462346#0 29462346#1 984608224#0 984608224#1 627729470 984608221#0 1046406886 -8089493#9 -8089493#8 -8089493#7 -8089493#6 -8089493#4 -8089493#3 -8089493#2 -8089493#0 531203500#0 531203500#1 531203500#2 531203500#3 -5928348#1 -5928324#6 -5928324#5 -5928324#4 -5928324#3 -5928324#2 -5928324#1 -5928324#0 -536942256#3 -536942256#2 -536942256#0 -187970389#1 -208177024#8 -208177024#6 -208177024#5 -208177024#4 -208177024#3 -208177024#2 -208177024#1 -208177024#0 819611164#2 177678680#0"/>
    </vehicle>
    <vehicle id="veh84" type="veh_passenger" depart="151.20" departLane="best">
        <route edges="177678595#1 177678648 -536948375#4 177678584#0 177678584#3 177678584#4 177678584#5 177678584#7 177678584#8 177678584#9 177678584#10 177678584#11 -29463328#5 -29463328#4 -29463328#2 -29463328#1 -29463328#0 29462346#0 29462346#1 984608224#0 984608224#1 627729470 984608221#0 1046406886"/>
    </vehicle>
    <vehicle id="veh85" type="veh_passenger" depart="153.00" departLane="best">
        <route edges="-6280422#1 -6280422#0 -537162620 -177678752#1 -177678752#0 1228989647#0 1228989647#1 -177678584#9 -177678584#8 -177678584#7 -177678584#5 181647515#0 181647515#2 -182249449#2 -182249449#1 -536942256#7 -536942256#5 -536942256#4 -536942256#3 -536942256#2 -536942256#0 -187970389#1 187974594#0 974793012 4247996#0 1175017322 1266036764 664990516#0 8043510#0"/>
    </vehicle>
    <vehicle id="veh86" type="veh_passenger" depart="154.80" departLane="best">
        <route edges="177678620 190595499#1 187970389#1 536942256#0 536942256#1 536942256#3 5928324#0 5928324#1 5928324#2 5928324#3 5928324#4 5928324#5 5928324#6 5928348#0"/>
    </vehicle>
    <vehicle id="veh87" type="veh_passenger" depart="156.60" departLane="best">
        <route edges="182249446#3 177678647#0 -8089493#8 -8089493#7 -8089493#6 -8089493#4 205623158#0 -206309662#3 8103886#0 -182249449#7 -182249449#5 -182249449#3 -182249449#2 177678590 536948375#0 -177678600#5 -177678600#3 -177678600#2 -177678600#1"/>