<?xml version="1.0" encoding="UTF-8"?>

<!-- generated on 2025-02-03 10:03:04 by Eclipse SUMO netedit Version 1.21.0
<neteditConfiguration xmlns:xsi="http://www.w3.org/2001/XMLSchema-instance" xsi:noNamespaceSchemaLocation="http://sumo.dlr.de/xsd/neteditConfiguration.xsd">

    <input>
        <sumocfg-file value="C:\Users\ctsiou01\OneDrive - University of Cyprus\Documents\NicosiaCalibration\Main_Project\Nicosia_Network\Nicosia.sumocfg"/>
        <additional-files value="C:\Users\ctsiou01\OneDrive - University of Cyprus\Documents\NicosiaCalibration\Main_Project\Nicosia_Network\detectors.add.xml"/>
        <route-files value="C:\Users\ctsiou01\OneDrive - University of Cyprus\Documents\NicosiaCalibration\Main_Project\Nicosia_Network\osm_pt.rou.xml"/>
        <data-files value="C:\Users\ctsiou01\OneDrive - University of Cyprus\Documents\NicosiaCalibration\Main_Project\Nicosia_Network\Nicosia.dat.xml"/>
        <sumo-net-file value="C:\Users\ctsiou01\OneDrive - University of Cyprus\Documents\NicosiaCalibration\Main_Project\Nicosia_Network\Nicosia.net.xml"/>
    </input>

    <output>
        <output-file value="C:\Users\ctsiou01\OneDrive - University of Cyprus\Documents\NicosiaCalibration\Main_Project\Nicosia_Network\Nicosia.net.xml"/>
        <output.street-names value="true"/>
    </output>

    <processing>
        <geometry.min-radius.fix.railways value="false"/>
        <geometry.max-grade.fix value="false"/>
        <offset.disable-normalization value="true"/>
        <lefthand value="1"/>
    </processing>

    <junctions>
        <no-turnarounds value="true"/>
        <junctions.corner-detail value="5"/>
        <junctions.limit-turn-speed value="5.50"/>
        <rectangular-lane-cut value="0"/>
    </junctions>

    <pedestrian>
        <walkingareas value="0"/>
    </pedestrian>

</neteditConfiguration>
-->

<net version="1.20" junctionCornerDetail="5" lefthand="true" limitTurnSpeed="5.50" xmlns:xsi="http://www.w3.org/2001/XMLSchema-instance" xsi:noNamespaceSchemaLocation="http://sumo.dlr.de/xsd/net_file.xsd">

    <location netOffset="-531402.96,-3888928.90" convBoundary="615.14,334.16,3241.77,2538.29" origBoundary="33.344839,35.142737,33.390317,35.172806" projParameter="+proj=utm +zone=36 +ellps=WGS84 +datum=WGS84 +units=m +no_defs"/>

    <type id="highway.primary" priority="12" numLanes="2" speed="27.78" disallow="tram rail_urban rail rail_electric rail_fast ship container cable_car subway aircraft wheelchair scooter drone" oneway="0"/>
    <type id="highway.primary_link" priority="7" numLanes="1" speed="22.22" disallow="tram rail_urban rail rail_electric rail_fast ship container cable_car subway aircraft wheelchair scooter drone" oneway="0"/>
    <type id="highway.residential" priority="3" numLanes="1" speed="13.89" disallow="tram rail_urban rail rail_electric rail_fast ship container cable_car subway aircraft wheelchair scooter drone" oneway="0"/>
    <type id="highway.secondary" priority="11" numLanes="1" speed="27.78" disallow="tram rail_urban rail rail_electric rail_fast ship container cable_car subway aircraft wheelchair scooter drone" oneway="0"/>
    <type id="highway.secondary_link" priority="6" numLanes="1" speed="22.22" disallow="tram rail_urban rail rail_electric rail_fast ship container cable_car subway aircraft wheelchair scooter drone" oneway="0"/>
    <type id="highway.tertiary" priority="10" numLanes="1" speed="22.22" disallow="tram rail_urban rail rail_electric rail_fast ship container cable_car subway aircraft wheelchair scooter drone" oneway="0"/>

    <edge id=":10024591729_0" function="internal">
        <lane id=":10024591729_0_0" index="0" disallow="tram rail_urban rail rail_electric rail_fast ship container cable_car subway aircraft wheelchair scooter drone" speed="13.89" length="0.10" shape="1116.79,1690.52 1116.79,1690.60"/>
    </edge>
    <edge id=":10024591729_1" function="internal">
        <lane id=":10024591729_1_0" index="0" disallow="tram rail_urban rail rail_electric rail_fast ship container cable_car subway aircraft wheelchair scooter drone" speed="13.89" length="0.10" shape="1119.99,1690.62 1119.99,1690.70"/>
    </edge>
    <edge id=":10045213173_0" function="internal">
        <lane id=":10045213173_0_0" index="0" disallow="tram rail_urban rail rail_electric rail_fast ship container cable_car subway aircraft wheelchair scooter drone" speed="13.89" length="8.00" shape="1270.24,2190.82 1273.69,2198.04"/>
        <lane id=":10045213173_0_1" index="1" disallow="tram rail_urban rail rail_electric rail_fast ship container cable_car subway aircraft wheelchair scooter drone" speed="13.89" length="8.00" shape="1273.13,2189.44 1276.58,2196.66"/>
    </edge>
    <edge id=":10064374283_0" function="internal">
        <lane id=":10064374283_0_0" index="0" disallow="tram rail_urban rail rail_electric rail_fast ship container cable_car subway aircraft wheelchair scooter drone" speed="13.89" length="8.19" shape="1276.74,2179.38 1275.74,2177.14 1275.61,2175.35 1275.47,2173.57 1274.48,2171.32"/>
        <lane id=":10064374283_0_1" index="1" disallow="tram rail_urban rail rail_electric rail_fast ship container cable_car subway aircraft wheelchair scooter drone" speed="13.89" length="8.19" shape="1276.74,2179.38 1271.80,2173.06"/>
        <lane id=":10064374283_0_2" index="2" disallow="tram rail_urban rail rail_electric rail_fast ship container cable_car subway aircraft wheelchair scooter drone" speed="13.89" length="8.19" shape="1274.07,2181.14 1269.11,2174.81"/>
    </edge>
    <edge id=":12137299848_0" function="internal">
        <lane id=":12137299848_0_0" index="0" disallow="tram rail_urban rail rail_electric rail_fast ship container cable_car subway aircraft wheelchair scooter drone" speed="13.89" length="0.30" shape="2368.93,1933.17 2369.23,1933.11"/>
        <lane id=":12137299848_0_1" index="1" disallow="tram rail_urban rail rail_electric rail_fast ship container cable_car subway aircraft wheelchair scooter drone" speed="13.89" length="0.30" shape="2368.30,1930.03 2368.58,1929.97"/>
    </edge>
    <edge id=":1880986286_0" function="internal">
        <lane id=":1880986286_0_0" index="0" disallow="tram rail_urban rail rail_electric rail_fast ship container cable_car subway aircraft wheelchair scooter drone" speed="6.70" length="9.24" shape="2699.52,626.93 2696.99,626.48 2695.17,625.37 2694.07,623.61 2693.67,621.18"/>
    </edge>
    <edge id=":1880986286_1" function="internal">
        <lane id=":1880986286_1_0" index="0" disallow="tram rail_urban rail rail_electric rail_fast ship container cable_car subway aircraft wheelchair scooter drone" speed="6.45" length="9.03" shape="2693.67,635.54 2694.06,633.09 2695.14,631.37 2696.92,630.38 2699.39,630.13"/>
    </edge>
    <edge id=":1880986286_2" function="internal">
        <lane id=":1880986286_2_0" index="0" disallow="tram rail_urban rail rail_electric rail_fast ship container cable_car subway aircraft wheelchair scooter drone" speed="13.89" length="14.32" shape="2693.67,635.54 2693.67,621.18"/>
        <lane id=":1880986286_2_1" index="1" disallow="tram rail_urban rail rail_electric rail_fast ship container cable_car subway aircraft wheelchair scooter drone" speed="13.89" length="14.32" shape="2690.47,635.50 2690.47,621.22"/>
    </edge>
    <edge id=":1880986356_0" function="internal">
        <lane id=":1880986356_0_0" index="0" disallow="tram rail_urban rail rail_electric rail_fast ship container cable_car subway aircraft wheelchair scooter drone" speed="6.80" length="9.32" shape="2686.89,909.22 2689.48,909.46 2691.43,910.41 2692.73,912.06 2693.39,914.42"/>
    </edge>
    <edge id=":1880986356_1" function="internal">
        <lane id=":1880986356_1_0" index="0" disallow="tram rail_urban rail rail_electric rail_fast ship container cable_car subway aircraft wheelchair scooter drone" speed="6.44" length="9.03" shape="2692.03,900.17 2691.84,902.65 2690.90,904.45 2689.21,905.58 2686.77,906.02"/>
    </edge>
    <edge id=":1880986356_2" function="internal">
        <lane id=":1880986356_2_0" index="0" disallow="tram rail_urban rail rail_electric rail_fast ship container cable_car subway aircraft wheelchair scooter drone" speed="15.97" length="14.23" shape="2692.03,900.17 2693.39,914.42"/>
        <lane id=":1880986356_2_1" index="1" disallow="tram rail_urban rail rail_electric rail_fast ship container cable_car subway aircraft wheelchair scooter drone" speed="15.97" length="14.23" shape="2695.22,899.95 2696.56,914.03"/>
    </edge>
    <edge id=":1880986359_0" function="internal">
        <lane id=":1880986359_0_0" index="0" disallow="tram rail_urban rail rail_electric rail_fast ship container cable_car subway aircraft wheelchair scooter drone" speed="7.55" length="10.89" shape="2484.79,910.59 2482.37,910.11 2480.47,908.70 2479.09,906.38 2478.22,903.13"/>
    </edge>
    <edge id=":1880986359_1" function="internal">
        <lane id=":1880986359_1_0" index="0" disallow="tram rail_urban rail rail_electric rail_fast ship container cable_car subway aircraft wheelchair scooter drone" speed="13.89" length="14.58" width="4.40" shape="2484.79,910.59 2470.21,910.19"/>
    </edge>
    <edge id=":1880986359_2" function="internal">
        <lane id=":1880986359_2_0" index="0" disallow="tram rail_urban rail rail_electric rail_fast ship container cable_car subway aircraft wheelchair scooter drone" speed="13.89" length="14.43" shape="2470.33,913.98 2484.76,913.79"/>
    </edge>
    <edge id=":1880986359_3" function="internal">
        <lane id=":1880986359_3_0" index="0" disallow="tram rail_urban rail rail_electric rail_fast ship container cable_car subway aircraft wheelchair scooter drone" speed="8.04" length="3.28" shape="2470.33,913.98 2473.56,913.36"/>
    </edge>
    <edge id=":1880986359_6" function="internal">
        <lane id=":1880986359_6_0" index="0" disallow="tram rail_urban rail rail_electric rail_fast ship container cable_car subway aircraft wheelchair scooter drone" speed="8.04" length="12.50" shape="2473.56,913.36 2474.43,913.19 2477.12,911.11 2478.38,907.76 2478.22,903.13"/>
    </edge>
    <edge id=":1880986359_4" function="internal">
        <lane id=":1880986359_4_0" index="0" disallow="tram rail_urban rail rail_electric rail_fast ship container cable_car subway aircraft wheelchair scooter drone" speed="6.40" length="9.58" width="4.40" shape="2475.06,903.65 2475.15,906.44 2474.37,908.46 2472.72,909.70 2470.21,910.19"/>
    </edge>
    <edge id=":1880986359_5" function="internal">
        <lane id=":1880986359_5_0" index="0" disallow="tram rail_urban rail rail_electric rail_fast ship container cable_car subway aircraft wheelchair scooter drone" speed="8.89" length="15.42" shape="2475.06,903.65 2476.29,908.06 2478.32,911.22 2481.14,913.13 2484.76,913.79"/>
    </edge>
    <edge id=":1880986503_0" function="internal">
        <lane id=":1880986503_0_0" index="0" disallow="tram rail_urban rail rail_electric rail_fast ship container cable_car subway aircraft wheelchair scooter drone" speed="6.56" length="9.02" shape="2652.72,1050.12 2650.22,1050.13 2648.30,1049.37 2646.97,1047.84 2646.22,1045.54"/>
    </edge>
    <edge id=":1880986503_1" function="internal">
        <lane id=":1880986503_1_0" index="0" disallow="tram rail_urban rail rail_electric rail_fast ship container cable_car subway aircraft wheelchair scooter drone" speed="6.38" length="8.87" shape="2653.17,1053.29 2650.83,1053.97 2649.29,1055.24 2648.56,1057.10 2648.64,1059.54"/>
    </edge>
    <edge id=":1880986503_2" function="internal">
        <lane id=":1880986503_2_0" index="0" disallow="tram rail_urban rail rail_electric rail_fast ship container cable_car subway aircraft wheelchair scooter drone" speed="13.89" length="14.45" shape="2643.07,1046.07 2645.49,1060.10"/>
        <lane id=":1880986503_2_1" index="1" disallow="tram rail_urban rail rail_electric rail_fast ship container cable_car subway aircraft wheelchair scooter drone" speed="13.89" length="14.45" shape="2643.07,1046.07 2644.11,1049.25 2645.69,1051.96 2647.35,1055.10 2648.64,1059.54"/>
    </edge>
    <edge id=":1880986512_0" function="internal">
        <lane id=":1880986512_0_0" index="0" disallow="tram rail_urban rail rail_electric rail_fast ship container cable_car subway aircraft wheelchair scooter drone" speed="7.63" length="12.26" shape="2359.96,1063.62 2356.03,1063.89 2353.05,1063.24 2351.00,1061.69 2349.89,1059.23"/>
    </edge>
    <edge id=":1880986512_1" function="internal">
        <lane id=":1880986512_1_0" index="0" disallow="tram rail_urban rail rail_electric rail_fast ship container cable_car subway aircraft wheelchair scooter drone" speed="8.33" length="20.59" shape="2359.96,1063.62 2339.65,1067.01"/>
    </edge>
    <edge id=":1880986512_2" function="internal">
        <lane id=":1880986512_2_0" index="0" disallow="tram rail_urban rail rail_electric rail_fast ship container cable_car subway aircraft wheelchair scooter drone" speed="8.66" length="5.61" shape="2359.96,1063.62 2354.86,1065.02 2354.59,1065.19"/>
    </edge>
    <edge id=":1880986512_12" function="internal">
        <lane id=":1880986512_12_0" index="0" disallow="tram rail_urban rail rail_electric rail_fast ship container cable_car subway aircraft wheelchair scooter drone" speed="8.66" length="11.28" shape="2354.59,1065.19 2351.42,1067.26 2349.66,1070.35 2349.57,1074.29"/>
    </edge>
    <edge id=":1880986512_3" function="internal">
        <lane id=":1880986512_3_0" index="0" disallow="tram rail_urban rail rail_electric rail_fast ship container cable_car subway aircraft wheelchair scooter drone" speed="6.49" length="9.03" shape="2355.88,1073.22 2355.81,1070.74 2356.56,1068.84 2358.11,1067.52 2360.48,1066.78"/>
    </edge>
    <edge id=":1880986512_4" function="internal">
        <lane id=":1880986512_4_0" index="0" disallow="tram rail_urban rail rail_electric rail_fast ship container cable_car subway aircraft wheelchair scooter drone" speed="13.89" length="15.31" shape="2355.88,1073.22 2354.56,1068.55 2352.81,1065.24 2351.10,1062.42 2349.89,1059.23"/>
    </edge>
    <edge id=":1880986512_5" function="internal">
        <lane id=":1880986512_5_0" index="0" disallow="tram rail_urban rail rail_electric rail_fast ship container cable_car subway aircraft wheelchair scooter drone" speed="8.63" length="4.96" shape="2352.73,1073.76 2351.35,1070.06 2350.59,1069.38"/>
    </edge>
    <edge id=":1880986512_13" function="internal">
        <lane id=":1880986512_13_0" index="0" disallow="tram rail_urban rail rail_electric rail_fast ship container cable_car subway aircraft wheelchair scooter drone" speed="8.63" length="11.72" shape="2350.59,1069.38 2348.71,1067.71 2344.81,1066.69 2339.65,1067.01"/>
    </edge>
    <edge id=":1880986512_6" function="internal">
        <lane id=":1880986512_6_0" index="0" disallow="tram rail_urban rail rail_electric rail_fast ship container cable_car subway aircraft wheelchair scooter drone" speed="7.27" length="11.55" shape="2340.19,1070.17 2343.94,1069.89 2346.75,1070.48 2348.63,1071.95 2349.57,1074.29"/>
    </edge>
    <edge id=":1880986512_7" function="internal">
        <lane id=":1880986512_7_0" index="0" disallow="tram rail_urban rail rail_electric rail_fast ship container cable_car subway aircraft wheelchair scooter drone" speed="8.33" length="20.57" shape="2340.19,1070.17 2360.48,1066.78"/>
    </edge>
    <edge id=":1880986512_8" function="internal">
        <lane id=":1880986512_8_0" index="0" disallow="tram rail_urban rail rail_electric rail_fast ship container cable_car subway aircraft wheelchair scooter drone" speed="8.51" length="16.77" shape="2340.19,1070.17 2345.17,1068.74 2348.45,1066.44 2350.02,1063.27 2349.89,1059.23"/>
    </edge>
    <edge id=":1880986512_9" function="internal">
        <lane id=":1880986512_9_0" index="0" disallow="tram rail_urban rail rail_electric rail_fast ship container cable_car subway aircraft wheelchair scooter drone" speed="6.36" length="8.95" shape="2343.93,1060.53 2344.12,1063.02 2343.47,1064.92 2341.98,1066.26 2339.65,1067.01"/>
    </edge>
    <edge id=":1880986512_10" function="internal">
        <lane id=":1880986512_10_0" index="0" disallow="tram rail_urban rail rail_electric rail_fast ship container cable_car subway aircraft wheelchair scooter drone" speed="13.89" length="14.93" shape="2343.93,1060.53 2345.37,1065.06 2347.03,1068.29 2348.56,1071.09 2349.57,1074.29"/>
    </edge>
    <edge id=":1880986512_11" function="internal">
        <lane id=":1880986512_11_0" index="0" disallow="tram rail_urban rail rail_electric rail_fast ship container cable_car subway aircraft wheelchair scooter drone" speed="8.90" length="5.04" shape="2346.86,1059.89 2348.44,1063.62 2349.19,1064.27"/>
    </edge>
    <edge id=":1880986512_14" function="internal">
        <lane id=":1880986512_14_0" index="0" disallow="tram rail_urban rail rail_electric rail_fast ship container cable_car subway aircraft wheelchair scooter drone" speed="8.90" length="12.07" shape="2349.19,1064.27 2351.23,1066.01 2355.24,1067.07 2360.48,1066.78"/>
    </edge>
    <edge id=":1880986530_0" function="internal">
        <lane id=":1880986530_0_0" index="0" disallow="tram rail_urban rail rail_electric rail_fast ship container cable_car subway aircraft wheelchair scooter drone" speed="13.89" length="8.20" shape="2736.98,1082.97 2736.74,1080.56 2736.95,1078.88 2737.16,1077.19 2736.91,1074.79"/>
        <lane id=":1880986530_0_1" index="1" disallow="tram rail_urban rail rail_electric rail_fast ship container cable_car subway aircraft wheelchair scooter drone" speed="13.89" length="8.20" shape="2733.84,1083.61 2733.61,1081.21 2733.82,1079.53 2734.03,1077.85 2733.78,1075.46"/>
        <lane id=":1880986530_0_2" index="2" disallow="tram rail_urban rail rail_electric rail_fast ship container cable_car subway aircraft wheelchair scooter drone" speed="13.89" length="8.20" shape="2733.84,1083.61 2733.12,1081.32 2732.26,1079.86 2731.39,1078.41 2730.65,1076.13"/>
    </edge>
    <edge id=":1880986542_0" function="internal">
        <lane id=":1880986542_0_0" index="0" disallow="tram rail_urban rail rail_electric rail_fast ship container cable_car subway aircraft wheelchair scooter drone" speed="8.33" length="14.40" shape="2173.71,1098.50 2159.56,1101.20"/>
    </edge>
    <edge id=":1880986542_1" function="internal">
        <lane id=":1880986542_1_0" index="0" disallow="tram rail_urban rail rail_electric rail_fast ship container cable_car subway aircraft wheelchair scooter drone" speed="8.25" length="3.94" shape="2173.71,1098.50 2170.14,1099.75 2170.02,1099.86"/>
    </edge>
    <edge id=":1880986542_6" function="internal">
        <lane id=":1880986542_6_0" index="0" disallow="tram rail_urban rail rail_electric rail_fast ship container cable_car subway aircraft wheelchair scooter drone" speed="8.25" length="10.35" shape="2170.02,1099.86 2167.74,1101.91 2166.50,1104.98 2166.44,1108.96"/>
    </edge>
    <edge id=":1880986542_2" function="internal">
        <lane id=":1880986542_2_0" index="0" disallow="tram rail_urban rail rail_electric rail_fast ship container cable_car subway aircraft wheelchair scooter drone" speed="6.80" length="9.40" shape="2169.62,1108.58 2169.65,1105.93 2170.44,1103.90 2172.00,1102.46 2174.31,1101.64"/>
    </edge>
    <edge id=":1880986542_3" function="internal">
        <lane id=":1880986542_3_0" index="0" disallow="tram rail_urban rail rail_electric rail_fast ship container cable_car subway aircraft wheelchair scooter drone" speed="7.88" length="14.46" shape="2169.62,1108.58 2168.59,1104.71 2166.57,1102.19 2163.56,1101.02 2159.56,1101.20"/>
    </edge>
    <edge id=":1880986542_4" function="internal">
        <lane id=":1880986542_4_0" index="0" disallow="tram rail_urban rail rail_electric rail_fast ship container cable_car subway aircraft wheelchair scooter drone" speed="6.36" length="9.04" shape="2160.16,1104.34 2162.66,1104.23 2164.54,1104.96 2165.80,1106.54 2166.44,1108.96"/>
    </edge>
    <edge id=":1880986542_5" function="internal">
        <lane id=":1880986542_5_0" index="0" disallow="tram rail_urban rail rail_electric rail_fast ship container cable_car subway aircraft wheelchair scooter drone" speed="8.33" length="14.41" shape="2160.16,1104.34 2174.31,1101.64"/>
    </edge>
    <edge id=":1880986548_0" function="internal">
        <lane id=":1880986548_0_0" index="0" disallow="tram rail_urban rail rail_electric rail_fast ship container cable_car subway aircraft wheelchair scooter drone" speed="13.89" length="14.38" shape="2488.62,1109.86 2474.39,1111.94"/>
    </edge>
    <edge id=":1880986548_1" function="internal">
        <lane id=":1880986548_1_0" index="0" disallow="tram rail_urban rail rail_electric rail_fast ship container cable_car subway aircraft wheelchair scooter drone" speed="8.01" length="4.05" shape="2488.62,1109.86 2484.90,1110.97 2484.78,1111.08"/>
    </edge>
    <edge id=":1880986548_6" function="internal">
        <lane id=":1880986548_6_0" index="0" disallow="tram rail_urban rail rail_electric rail_fast ship container cable_car subway aircraft wheelchair scooter drone" speed="8.01" length="10.14" shape="2484.78,1111.08 2482.42,1113.01 2481.19,1115.97 2481.19,1119.86"/>
    </edge>
    <edge id=":1880986548_2" function="internal">
        <lane id=":1880986548_2_0" index="0" disallow="tram rail_urban rail rail_electric rail_fast ship container cable_car subway aircraft wheelchair scooter drone" speed="6.52" length="9.04" shape="2484.36,1119.40 2484.35,1116.92 2485.14,1115.03 2486.72,1113.74 2489.09,1113.03"/>
    </edge>
    <edge id=":1880986548_3" function="internal">
        <lane id=":1880986548_3_0" index="0" disallow="tram rail_urban rail rail_electric rail_fast ship container cable_car subway aircraft wheelchair scooter drone" speed="8.00" length="14.19" shape="2484.36,1119.40 2483.26,1115.67 2481.24,1113.18 2478.28,1111.94 2474.39,1111.94"/>
    </edge>
    <edge id=":1880986548_4" function="internal">
        <lane id=":1880986548_4_0" index="0" disallow="tram rail_urban rail rail_electric rail_fast ship container cable_car subway aircraft wheelchair scooter drone" speed="6.51" length="9.03" shape="2474.85,1115.11 2477.32,1115.11 2479.21,1115.90 2480.49,1117.48 2481.19,1119.86"/>
    </edge>
    <edge id=":1880986548_5" function="internal">
        <lane id=":1880986548_5_0" index="0" disallow="tram rail_urban rail rail_electric rail_fast ship container cable_car subway aircraft wheelchair scooter drone" speed="13.89" length="14.39" shape="2474.85,1115.11 2489.09,1113.03"/>
    </edge>
    <edge id=":1880986550_0" function="internal">
        <lane id=":1880986550_0_0" index="0" disallow="tram rail_urban rail rail_electric rail_fast ship container cable_car subway aircraft wheelchair scooter drone" speed="6.04" length="9.07" shape="2649.84,1118.76 2652.31,1118.04 2654.24,1118.37 2655.61,1119.76 2656.44,1122.20"/>
    </edge>
    <edge id=":1880986550_1" function="internal">
        <lane id=":1880986550_1_0" index="0" disallow="tram rail_urban rail rail_electric rail_fast ship container cable_car subway aircraft wheelchair scooter drone" speed="7.68" length="10.43" shape="2653.86,1107.85 2653.86,1110.28 2652.97,1112.43 2651.19,1114.28 2648.51,1115.85"/>
    </edge>
    <edge id=":1880986550_2" function="internal">
        <lane id=":1880986550_2_0" index="0" disallow="tram rail_urban rail rail_electric rail_fast ship container cable_car subway aircraft wheelchair scooter drone" speed="13.89" length="14.56" shape="2653.86,1107.85 2656.44,1122.20"/>
        <lane id=":1880986550_2_1" index="1" disallow="tram rail_urban rail rail_electric rail_fast ship container cable_car subway aircraft wheelchair scooter drone" speed="13.89" length="14.56" shape="2657.02,1107.30 2659.59,1121.62"/>
    </edge>
    <edge id=":1880986553_0" function="internal">
        <lane id=":1880986553_0_0" index="0" disallow="tram rail_urban rail rail_electric rail_fast ship container cable_car subway aircraft wheelchair scooter drone" speed="13.89" length="14.42" shape="2428.62,1118.53 2414.36,1120.61"/>
    </edge>
    <edge id=":1880986553_1" function="internal">
        <lane id=":1880986553_1_0" index="0" disallow="tram rail_urban rail rail_electric rail_fast ship container cable_car subway aircraft wheelchair scooter drone" speed="7.97" length="4.09" shape="2428.62,1118.53 2424.87,1119.63 2424.73,1119.75"/>
    </edge>
    <edge id=":1880986553_6" function="internal">
        <lane id=":1880986553_6_0" index="0" disallow="tram rail_urban rail rail_electric rail_fast ship container cable_car subway aircraft wheelchair scooter drone" speed="7.97" length="10.17" shape="2424.73,1119.75 2422.38,1121.67 2421.18,1124.65 2421.25,1128.57"/>
    </edge>
    <edge id=":1880986553_2" function="internal">
        <lane id=":1880986553_2_0" index="0" disallow="tram rail_urban rail rail_electric rail_fast ship container cable_car subway aircraft wheelchair scooter drone" speed="6.47" length="9.03" shape="2424.41,1128.06 2424.36,1125.58 2425.13,1123.69 2426.70,1122.40 2429.08,1121.70"/>
    </edge>
    <edge id=":1880986553_3" function="internal">
        <lane id=":1880986553_3_0" index="0" disallow="tram rail_urban rail rail_electric rail_fast ship container cable_car subway aircraft wheelchair scooter drone" speed="8.05" length="14.22" shape="2424.41,1128.06 2423.25,1124.32 2421.19,1121.84 2418.23,1120.60 2414.36,1120.61"/>
    </edge>
    <edge id=":1880986553_4" function="internal">
        <lane id=":1880986553_4_0" index="0" disallow="tram rail_urban rail rail_electric rail_fast ship container cable_car subway aircraft wheelchair scooter drone" speed="6.57" length="9.11" shape="2414.82,1123.77 2417.30,1123.77 2419.19,1124.57 2420.51,1126.17 2421.25,1128.57"/>
    </edge>
    <edge id=":1880986553_5" function="internal">
        <lane id=":1880986553_5_0" index="0" disallow="tram rail_urban rail rail_electric rail_fast ship container cable_car subway aircraft wheelchair scooter drone" speed="13.89" length="14.41" shape="2414.82,1123.77 2429.08,1121.70"/>
    </edge>
    <edge id=":1880986562_0" function="internal">
        <lane id=":1880986562_0_0" index="0" disallow="tram rail_urban rail rail_electric rail_fast ship container cable_car subway aircraft wheelchair scooter drone" speed="6.55" length="8.99" shape="2370.69,1127.04 2368.23,1127.05 2366.35,1126.28 2365.03,1124.72 2364.28,1122.38"/>
    </edge>
    <edge id=":1880986562_1" function="internal">
        <lane id=":1880986562_1_0" index="0" disallow="tram rail_urban rail rail_electric rail_fast ship container cable_car subway aircraft wheelchair scooter drone" speed="8.67" length="16.75" shape="2370.69,1127.04 2365.62,1128.34 2362.17,1130.50 2360.35,1133.53 2360.14,1137.43"/>
    </edge>
    <edge id=":1880986562_2" function="internal">
        <lane id=":1880986562_2_0" index="0" disallow="tram rail_urban rail rail_electric rail_fast ship container cable_car subway aircraft wheelchair scooter drone" speed="7.32" length="11.64" shape="2363.31,1136.98 2363.51,1134.49 2364.89,1132.53 2367.43,1131.10 2371.16,1130.20"/>
    </edge>
    <edge id=":1880986562_3" function="internal">
        <lane id=":1880986562_3_0" index="0" disallow="tram rail_urban rail rail_electric rail_fast ship container cable_car subway aircraft wheelchair scooter drone" speed="13.89" length="14.23" shape="2363.31,1136.98 2361.12,1122.92"/>
    </edge>
    <edge id=":1880986562_4" function="internal">
        <lane id=":1880986562_4_0" index="0" disallow="tram rail_urban rail rail_electric rail_fast ship container cable_car subway aircraft wheelchair scooter drone" speed="3.65" length="1.44" shape="2363.31,1136.98 2362.35,1135.91"/>
    </edge>
    <edge id=":1880986562_7" function="internal">
        <lane id=":1880986562_7_0" index="0" disallow="tram rail_urban rail rail_electric rail_fast ship container cable_car subway aircraft wheelchair scooter drone" speed="3.65" length="3.23" shape="2362.35,1135.91 2361.50,1135.62 2360.77,1136.13 2360.14,1137.43"/>
    </edge>
    <edge id=":1880986562_5" function="internal">
        <lane id=":1880986562_5_0" index="0" disallow="tram rail_urban rail rail_electric rail_fast ship container cable_car subway aircraft wheelchair scooter drone" speed="13.89" length="14.14" shape="2357.97,1123.46 2360.14,1137.43"/>
    </edge>
    <edge id=":1880986562_6" function="internal">
        <lane id=":1880986562_6_0" index="0" disallow="tram rail_urban rail rail_electric rail_fast ship container cable_car subway aircraft wheelchair scooter drone" speed="8.70" length="3.47" shape="2357.97,1123.46 2359.20,1126.71"/>
    </edge>
    <edge id=":1880986562_8" function="internal">
        <lane id=":1880986562_8_0" index="0" disallow="tram rail_urban rail rail_electric rail_fast ship container cable_car subway aircraft wheelchair scooter drone" speed="8.70" length="13.21" shape="2359.20,1126.71 2359.34,1127.06 2361.99,1129.38 2365.93,1130.43 2371.16,1130.20"/>
    </edge>
    <edge id=":1880986587_0" function="internal">
        <lane id=":1880986587_0_0" index="0" disallow="tram rail_urban rail rail_electric rail_fast ship container cable_car subway aircraft wheelchair scooter drone" speed="13.89" length="14.31" shape="2242.88,1143.75 2228.64,1145.11"/>
    </edge>
    <edge id=":1880986587_1" function="internal">
        <lane id=":1880986587_1_0" index="0" disallow="tram rail_urban rail rail_electric rail_fast ship container cable_car subway aircraft wheelchair scooter drone" speed="7.96" length="3.92" shape="2242.88,1143.75 2239.08,1144.71"/>
    </edge>
    <edge id=":1880986587_6" function="internal">